Version 4
SHEET 1 880 772
WIRE 320 -16 16 -16
WIRE 320 32 320 -16
WIRE 320 112 288 112
WIRE 336 112 320 112
WIRE 144 160 16 160
WIRE 336 208 336 112
WIRE 384 208 336 208
WIRE 480 208 448 208
WIRE 480 240 480 208
WIRE 480 240 416 240
WIRE 544 240 480 240
WIRE 16 256 16 160
WIRE 416 272 416 240
WIRE 544 272 544 240
WIRE 16 352 16 336
WIRE 288 352 288 208
WIRE 288 352 16 352
WIRE 416 352 416 336
WIRE 416 352 288 352
WIRE 480 352 416 352
WIRE 544 352 480 352
WIRE 480 384 480 352
WIRE 448 512 400 512
WIRE 400 640 400 512
WIRE 400 752 400 720
FLAG 480 384 0
FLAG 400 752 0
FLAG 448 512 Light
IOPIN 448 512 BiDir
FLAG -48 112 Light
IOPIN -48 112 BiDir
SYMBOL res 304 16 R0
SYMATTR InstName R1
SYMATTR Value 100k
SYMBOL voltage 16 -32 R0
WINDOW 123 0 0 Left 2
WINDOW 39 0 0 Left 2
SYMATTR InstName V1
SYMATTR Value 10V
SYMBOL diode 384 224 R270
WINDOW 0 32 32 VTop 2
WINDOW 3 0 32 VBottom 2
SYMATTR InstName D1
SYMBOL cap 400 272 R0
SYMATTR InstName C1
SYMATTR Value 10µ
SYMBOL res 528 256 R0
SYMATTR InstName R2
SYMATTR Value 200k
SYMBOL npn 224 112 R0
SYMATTR InstName Q1
SYMBOL res 240 144 R90
WINDOW 0 0 56 VBottom 2
WINDOW 3 32 56 VTop 2
SYMATTR InstName R3
SYMATTR Value 10k
SYMBOL npn -48 64 R0
SYMATTR InstName Q2
SYMBOL res 0 240 R0
SYMATTR InstName R4
SYMATTR Value 670
SYMBOL voltage 400 624 R0
WINDOW 123 0 0 Left 2
WINDOW 39 0 0 Left 2
SYMATTR InstName V2
SYMATTR Value {V}
TEXT 104 528 Left 2 !.op
TEXT 64 440 Left 2 !.step param V 2 0.1 0
