Version 4
SHEET 1 880 680
WIRE 288 -112 96 -112
WIRE 560 -112 288 -112
WIRE 96 16 96 -112
WIRE 96 16 -64 16
WIRE 96 48 96 16
WIRE -64 80 -64 16
WIRE 320 80 288 32
WIRE 560 80 560 32
WIRE 176 128 96 128
WIRE 416 128 384 128
WIRE 512 128 496 128
WIRE 176 192 176 128
WIRE 384 192 384 128
WIRE 384 192 176 192
WIRE -64 240 -64 160
WIRE 96 240 96 208
WIRE 96 240 -64 240
WIRE 176 240 96 240
WIRE 288 240 320 176
WIRE 288 240 176 240
WIRE 560 240 288 240
WIRE 176 288 176 240
FLAG 176 288 0
FLAG 96 128 Ue
SYMBOL res 80 32 R0
SYMATTR InstName R1
SYMATTR Value {R}
SYMBOL res 80 112 R0
SYMATTR InstName R2
SYMATTR Value 600
SYMBOL npn 256 80 R0
SYMATTR InstName Q1
SYMBOL voltage -64 64 R0
WINDOW 123 0 0 Left 2
WINDOW 39 0 0 Left 2
SYMATTR InstName V1
SYMATTR Value 10
SYMBOL res 272 -64 R0
SYMATTR InstName R3
SYMATTR Value 330
SYMBOL diode 272 -112 R0
SYMATTR InstName D1
SYMBOL npn 496 80 R0
SYMATTR InstName Q2
SYMBOL res 544 -64 R0
SYMATTR InstName R4
SYMATTR Value 330
SYMBOL diode 544 -112 R0
SYMATTR InstName D3
SYMBOL diode 544 176 R0
SYMATTR InstName D2
SYMBOL res 512 112 R90
WINDOW 0 0 56 VBottom 2
WINDOW 3 32 56 VTop 2
SYMATTR InstName R5
SYMATTR Value 1k
SYMBOL res 272 112 R90
WINDOW 0 0 56 VBottom 2
WINDOW 3 32 56 VTop 2
SYMATTR InstName R6
SYMATTR Value 1k
TEXT 96 352 Left 2 !.step param R 10k 1k 200\n.op
